
#======================================================================
# CRYSTAL DATA
#----------------------------------------------------------------------
data_VESTA_phase_1

_chemical_name_common                  'BYNCO '
_cell_length_a                         13.238(7)
_cell_length_b                         10.144(4)
_cell_length_c                         17.257(7)
_cell_angle_alpha                      90.000000
_cell_angle_beta                       90.000000
_cell_angle_gamma                      90.000000
_cell_volume                           2317.378189
_space_group_name_H-M_alt              'P b c n'
_space_group_IT_number                 60

loop_
_space_group_symop_operation_xyz
   'x, y, z'
   '-x, -y, -z'
   '-x+1/2t, -y+1/2t, z+1/2t'
   'x+1/2t, y+1/2t, -z+1/2t'
   '-x, y, -z+1/2t'
   'x, -y, z+1/2t'
   'x+1/2t, -y+1/2t, -z'
   '-x+1/2t, y+1/2t, z'

loop_
   _atom_site_label
   _atom_site_occupancy
   _atom_site_fract_x
   _atom_site_fract_y
   _atom_site_fract_z
   _atom_site_adp_type
   _atom_site_U_iso_or_equiv
   _atom_site_type_symbol
   Fe1        1.0     0.000000     0.166620     0.250000    Uiso  0.006960 Fe
   N20        1.0     0.055600     0.297900     0.319870    Uiso  0.006960 N
   C21        1.0     0.096650     0.352710     0.391370    Uiso  0.006960 C
   S22        1.0     0.148110     0.484900     0.435260    Uiso  0.006960 S
   N1         1.0     0.000250    -0.016700     0.162090    Uiso  0.006960 N
   N2         1.0     0.148310     0.084740     0.244210    Uiso  0.006960 N
   C1         1.0     0.103000    -0.001900     0.151310    Uiso  0.006960 C
   C2         1.0     0.134430     0.059620     0.182860    Uiso  0.006960 C
   C3         1.0    -0.105200    -0.059600     0.131580    Uiso  0.006960 C
   C4         1.0    -0.101(4)    -0.125(4)     0.070(2)    Uiso  0.006960 C
   C5         1.0     0.015930    -0.199600     0.027290    Uiso  0.006960 C
   C6         1.0     0.120000    -0.128600     0.081560    Uiso  0.006960 C
   C7         1.0     0.189220    -0.168800     0.074280    Uiso  0.006960 C
   C8         1.0     0.310010    -0.127400     0.109970    Uiso  0.006960 C
   C9         1.0     0.280290    -0.023500     0.155890    Uiso  0.006960 C
   C10        1.0     0.362730     0.056820     0.193330    Uiso  0.006960 C
   C11        1.0     0.329350     0.159220     0.245890    Uiso  0.006960 C
   C12        1.0     0.218080     0.197010     0.260430    Uiso  0.006960 C
   H3         1.0    -0.148200    -0.002000     0.136100    Uiso  0.006960 H
   H4         1.0    -0.137500    -0.175000     0.047000    Uiso  0.006960 H
   H5         1.0     0.026900    -0.264000     0.015000    Uiso  0.006960 H
   H7         1.0     0.216600    -0.251000     0.030700    Uiso  0.006960 H
   H8         1.0     0.356700    -0.148000     0.088300    Uiso  0.006960 H
   H10        1.0     0.424100     0.027000     0.178300    Uiso  0.006960 H
   H11        1.0     0.397800     0.198000     0.269600    Uiso  0.006960 H
   H12        1.0     0.226700     0.258000     0.297400    Uiso  0.006960 H
