
#======================================================================
# CRYSTAL DATA
#----------------------------------------------------------------------
data_VESTA_phase_1

_chemical_name_common                  'BYNCO '
_cell_length_a                         12.895(6)
_cell_length_b                         10.080(4)
_cell_length_c                         17.054(6)
_cell_angle_alpha                      90.000000
_cell_angle_beta                       90.000000
_cell_angle_gamma                      90.000000
_cell_volume                           2216.706379
_space_group_name_H-M_alt              'P b c n'
_space_group_IT_number                 60

loop_
_space_group_symop_operation_xyz
   'x, y, z'
   '-x, -y, -z'
   '-x+1/2t, -y+1/2t, z+1/2t'
   'x+1/2t, y+1/2t, -z+1/2t'
   '-x, y, -z+1/2t'
   'x, -y, z+1/2t'
   'x+1/2t, -y+1/2t, -z'
   '-x+1/2t, y+1/2t, z'

loop_
   _atom_site_label
   _atom_site_occupancy
   _atom_site_fract_x
   _atom_site_fract_y
   _atom_site_fract_z
   _atom_site_adp_type
   _atom_site_U_iso_or_equiv
   _atom_site_type_symbol
   Fe1        1.0     0.000000     0.151630     0.250000    Uiso -0.024100 Fe
   N20        1.0     0.064180     0.276650     0.304400    Uiso -0.024100 N
   C21        1.0     0.094320     0.341520     0.388090    Uiso -0.024100 C
   S22        1.0     0.148110     0.484900     0.435260    Uiso -0.024100 S
   N1         1.0    -0.013800    -0.009600     0.161320    Uiso -0.024100 N
   N2         1.0     0.148350     0.104560     0.235580    Uiso -0.024100 N
   C1         1.0     0.082110    -0.024300     0.153980    Uiso -0.024100 C
   C2         1.0     0.156510     0.057770     0.187160    Uiso -0.024100 C
   C3         1.0    -0.108900    -0.051200     0.138100    Uiso -0.024100 C
   C4         1.0    -0.101900    -0.110800     0.082340    Uiso -0.024100 C
   C5         1.0    -0.001400    -0.202000     0.024870    Uiso -0.024100 C
   C6         1.0     0.120790    -0.125000     0.077770    Uiso -0.024100 C
   C7         1.0     0.192710    -0.155200     0.072570    Uiso -0.024100 C
   C8         1.0     0.300660    -0.161900     0.111470    Uiso -0.024100 C
   C9         1.0     0.287750    -0.041300     0.143470    Uiso -0.024100 C
   C10        1.0     0.361160     0.052490     0.188490    Uiso -0.024100 C
   C11        1.0     0.349480     0.162500     0.255450    Uiso -0.024100 C
   C12        1.0     0.210(3)     0.190(4)     0.235(2)    Uiso -0.024100 C
   H3         1.0    -0.148200    -0.002000     0.136100    Uiso -0.024100 H
   H4         1.0    -0.137500    -0.175000     0.047000    Uiso -0.024100 H
   H5         1.0     0.026900    -0.264000     0.015000    Uiso -0.024100 H
   H7         1.0     0.216600    -0.251000     0.030700    Uiso -0.024100 H
   H8         1.0     0.356700    -0.148000     0.088300    Uiso -0.024100 H
   H10        1.0     0.424100     0.027000     0.178300    Uiso -0.024100 H
   H11        1.0     0.397800     0.198000     0.269600    Uiso -0.024100 H
   H12        1.0     0.226700     0.258000     0.297400    Uiso -0.024100 H
